9
Optimized structure E=-155.055460 Hartree
C     -0.908421     0.180058    -0.014957
C      0.461472    -0.491467    -0.052643
O      1.482333     0.288192     0.574562
H     -0.904914     1.121115    -0.579334
H     -1.669374    -0.470907    -0.461598
H     -1.201894     0.401210     1.016185
H      0.743028    -0.729470    -1.089785
H      0.441419    -1.432604     0.504990
H      1.562327     1.130064     0.107679
